LTspice 26.0.1 for Windows
Circuit: C:\Users\Administrator\Desktop\workspace\OdariTutorials\FilterDesign\Draft1.net
Start Time: Fri Jul 17 07:58:53 2026
solver = Normal
Maximum thread count: 8
tnom = 27
temp = 27
method = trap
Direct Newton iteration succeeded in finding operating point.
Total elapsed time: 0.192 seconds.

Files loaded:
C:\Users\Administrator\Desktop\workspace\OdariTutorials\FilterDesign\Draft1.net
C:\Users\Administrator\AppData\Local\LTspice\lib\sub\UniversalOpAmp1.lib

